          32

 Xe   0.00000000       0.00000000       0.00000000    
 Xe   3.25000000       3.25000000       0.00000000    
 Xe   3.25000000       0.00000000       3.25000000    
 Xe   0.00000000       3.25000000       3.25000000    
 Xe   0.00000000       0.00000000       6.50000000    
 Xe   3.25000000       3.25000000       6.50000000    
 Xe   3.25000000       0.00000000       9.75000000    
 Xe   0.00000000       3.25000000       9.75000000    
 Xe   0.00000000       6.50000000       0.00000000    
 Xe   3.25000000       9.75000000       0.00000000    
 Xe   3.25000000       6.50000000       3.25000000    
 Xe   0.00000000       9.75000000       3.25000000    
 Xe   0.00000000       6.50000000       6.50000000    
 Xe   3.25000000       9.75000000       6.50000000    
 Xe   3.25000000       6.50000000       9.75000000    
 Xe   0.00000000       9.75000000       9.75000000    
 Xe   6.50000000       0.00000000       0.00000000    
 Xe   9.75000000       3.25000000       0.00000000    
 Xe   9.75000000       0.00000000       3.25000000    
 Xe   6.50000000       3.25000000       3.25000000    
 Xe   6.50000000       0.00000000       6.50000000    
 Xe   9.75000000       3.25000000       6.50000000    
 Xe   9.75000000       0.00000000       9.75000000    
 Xe   6.50000000       3.25000000       9.75000000    
 Xe   6.50000000       6.50000000       0.00000000    
 Xe   9.75000000       9.75000000       0.00000000    
 Xe   9.75000000       6.50000000       3.25000000    
 Xe   6.50000000       9.75000000       3.25000000    
 Xe   6.50000000       6.50000000       6.50000000    
 Xe   9.75000000       9.75000000       6.50000000    
 Xe   9.75000000       6.50000000       9.75000000    
 Xe   6.50000000       9.75000000       9.75000000 
